!!>>>>>>>>>>>>>>>>>>>>>>>>>>>>>>>>>>>>>>>>>>>>>>>>>>>>>>>>>>>>>>>>>>>>>>
!! SEDIMENT reference namelist 
!!              1  - run characteristics                      (nam_run) 
!!              2  - sediment geometry                        (nam_geom)
!!              3  - prognostic variables                     (nam_trased)
!!              4  - diagnostic arrays                        (nam_diased)    
!!              5  - parameters for clay/silicium             (nam_reac)
!!              6  - parameters for redox reactions           (nam_poc)
!!              7  - parameters for calcite                   (nam_cal)
!!              8  - parameters for restarting                (nam_rst)
!-----------------------------------------------------------------------
&nam_run      !  Characteristics of the simulation
!-----------------------------------------------------------------------
/
!-----------------------------------------------------------------------
&nam_geom     !  Characteristics of the sediment columns
!-----------------------------------------------------------------------
/
!-----------------------------------------------------------------------
&nam_trased     !   Prognostic variables
!-----------------------------------------------------------------------
!                 !           !                                          !             !
!                 !    name   !           title of the field             !   units     ! initial data from file or not !
!                 !           !                                          !             !
/
!-----------------------------------------------------------------------
&nam_diased     !  Diagnostic arrays
!-----------------------------------------------------------------------
!
/
!-----------------------------------------------------------------------
&nam_inorg     !   Inorganic chemistry in sediments (CacO3, Si)
!-----------------------------------------------------------------------
/
!-----------------------------------------------------------------------
&nam_poc     !   parameters for the redox reactions of the sediment module
!-----------------------------------------------------------------------
/
!-----------------------------------------------------------------------
&nam_btb     !   parameters for bioturbation and bioirrigation
!-----------------------------------------------------------------------
/ 
!-----------------------------------------------------------------------
&nam_rst     !   parameters for restarting the sediment module
!-----------------------------------------------------------------------
/
!-----------------------------------------------------------------------
&nam_output     !   parameters for outputing the sediment module
!-----------------------------------------------------------------------
/
